  
       XFOIL         Version 6.99
  
 Calculated polar for: S9000 (9%)                                      
  
 1 1 Reynolds number fixed          Mach number fixed         
  
 xtrf =   1.000 (top)        1.000 (bottom)  
 Mach =   0.000     Re =     5.000 e 6     Ncrit =   9.000  9.000
  
   alpha    CL        CD       CDp       CM     Top_Xtr  Bot_Xtr  Top_Itr  Bot_Itr
  ------ -------- --------- --------- -------- -------- -------- -------- --------
  -6.000  -0.3207   0.00711   0.00153  -0.0756   0.9061   0.0025  10.3078 105.7127
  -5.600  -0.2784   0.00679   0.00122  -0.0750   0.8752   0.0026  13.0328 105.7600
  -5.200  -0.2350   0.00649   0.00096  -0.0747   0.8487   0.0026  15.3653 105.8062
  -4.800  -0.1914   0.00625   0.00075  -0.0744   0.8210   0.0027  17.7997 105.8537
  -4.400  -0.1475   0.00607   0.00058  -0.0742   0.7910   0.0028  20.4303 105.9053
  -4.000  -0.1031   0.00592   0.00045  -0.0740   0.7642   0.0028  22.7775 105.9657
  -3.600  -0.0586   0.00577   0.00034  -0.0739   0.7384   0.0033  25.0379 106.2571
  -3.200  -0.0142   0.00556   0.00022  -0.0738   0.7096   0.0155  27.5665 111.1054
  -2.800   0.0302   0.00545   0.00014  -0.0737   0.6790   0.0307  30.2528 113.6162
  -2.400   0.0745   0.00535   0.00008  -0.0736   0.6441   0.0570  33.3117 116.4612
  -2.000   0.1190   0.00520   0.00002  -0.0736   0.6141   0.1037  35.9420 120.8016
  -1.600   0.1636   0.00502  -0.00002  -0.0736   0.5870   0.1685  38.3180 126.5783
  -1.200   0.2082   0.00492  -0.00003  -0.0737   0.5584   0.2278  40.8253 131.7806
  -0.800   0.2525   0.00485  -0.00002  -0.0737   0.5198   0.2999  44.2108 138.0697
  -0.400   0.2969   0.00484   0.00000  -0.0737   0.4833   0.3575  47.4184 143.0737
   0.000   0.3416   0.00477   0.00003  -0.0738   0.4561   0.4301  49.8015 149.3617
   0.400   0.3861   0.00475   0.00007  -0.0738   0.4264   0.4973  52.4087 155.1757
   0.800   0.4306   0.00470   0.00012  -0.0739   0.3976   0.5820  54.9468 162.5071
   1.200   0.4750   0.00469   0.00018  -0.0739   0.3676   0.6622  57.5889 169.4763
   1.600   0.5188   0.00485   0.00027  -0.0738   0.3267   0.7067  61.1960 173.3339
   2.000   0.5629   0.00500   0.00035  -0.0737   0.2949   0.7408  64.0143 176.2864
   2.400   0.6073   0.00514   0.00043  -0.0736   0.2716   0.7684  66.0755 178.6824
   2.800   0.6515   0.00530   0.00051  -0.0736   0.2487   0.7899  68.1188 180.5503
   3.200   0.6949   0.00554   0.00062  -0.0734   0.2138   0.8146  71.2404 182.7099
   3.600   0.7381   0.00580   0.00074  -0.0731   0.1832   0.8384  73.9956 184.7820
   4.000   0.7815   0.00600   0.00085  -0.0729   0.1618   0.8620  75.9573 186.8495
   4.400   0.8244   0.00621   0.00097  -0.0726   0.1423   0.8906  77.7512 189.3654
   4.800   0.8663   0.00641   0.00110  -0.0721   0.1236   0.9238  79.4952 192.3031
   5.200   0.9056   0.00656   0.00121  -0.0709   0.1066   1.0000  81.1033 200.0000
   5.600   0.9483   0.00692   0.00137  -0.0706   0.0863   1.0000  83.0807 200.0000
   6.000   0.9906   0.00732   0.00156  -0.0703   0.0666   1.0000  85.0637 200.0000
   6.400   1.0328   0.00771   0.00174  -0.0700   0.0524   1.0000  86.5825 200.0000
   6.800   1.0747   0.00812   0.00195  -0.0696   0.0397   1.0000  88.0510 200.0000
   7.200   1.1165   0.00852   0.00216  -0.0692   0.0308   1.0000  89.1875 200.0000
   7.600   1.1581   0.00893   0.00238  -0.0688   0.0244   1.0000  90.1172 200.0000
   8.000   1.1988   0.00942   0.00264  -0.0683   0.0170   1.0000  91.4375 200.0000
   8.400   1.2385   0.00999   0.00298  -0.0676   0.0103   1.0000  93.1489 200.0000
   8.800   1.2785   0.01051   0.00329  -0.0670   0.0072   1.0000  94.3008 200.0000
   9.200   1.3183   0.01103   0.00360  -0.0664   0.0054   1.0000  95.1458 200.0000
   9.600   1.3575   0.01157   0.00392  -0.0657   0.0042   1.0000  95.8412 200.0000
  10.000   1.3967   0.01207   0.00422  -0.0650   0.0036   1.0000  96.2392 200.0000
  10.400   1.4347   0.01268   0.00460  -0.0641   0.0028   1.0000  96.8735 200.0000
  10.800   1.4725   0.01326   0.00495  -0.0633   0.0023   1.0000  97.3407 200.0000
  11.200   1.5086   0.01397   0.00540  -0.0622   0.0015   1.0000  98.2416 200.0000
  11.600   1.5431   0.01479   0.00593  -0.0608   0.0008   1.0000  99.2951 200.0000
  12.000   1.5761   0.01569   0.00647  -0.0593   0.0004   1.0000 100.0006 200.0000
  12.400   1.6095   0.01647   0.00696  -0.0578   0.0004   1.0000 100.0727 200.0000
  12.800   1.6413   0.01731   0.00748  -0.0562   0.0004   1.0000 100.1612 200.0000
  13.200   1.6711   0.01823   0.00806  -0.0543   0.0003   1.0000 100.2527 200.0000
  13.600   1.6983   0.01922   0.00869  -0.0520   0.0003   1.0000 100.3403 200.0000
  14.000   1.7219   0.02030   0.00935  -0.0492   0.0003   1.0000 100.4237 200.0000
  14.400   1.7352   0.02140   0.01000  -0.0445   0.0003   1.0000 100.4981 200.0000
  14.800   1.7461   0.02270   0.01078  -0.0400   0.0002   1.0000 100.5751 200.0000
